tests/data/pwf/d_33nodes_dcer_dcsc.pwf
TITU
Sistema-Teste de 33 Barras - Caso Base
DOPC IMPR
(Op) E (Op) E (Op) E (Op) E (Op) E (Op) E (Op) E (Op) E (Op) E (Op) E
QLIM L VLIM L CREM L CTAP L STEP L NEWT L RCVG L RMON L FILE L SUBS L
CONT L NOVO L CELO L MFCT L AREG L STPO L VLCR L CPHS L IANG L
99999
DCTE
(Mn) ( Val) (Mn) ( Val) (Mn) ( Val) (Mn) ( Val) (Mn) ( Val) (Mn) ( Val)
BASE   100. DASE   100. TEPA     1. EXST     4. TETP     5. TBPA     5.
TLPP     1. TEPR     1. QLST     4. TLPR     1. TLPQ     2. TSBZ    .01
TSBA     5. ASTP    .05 VSTP     5. TLVC     .5 TLTC    .01 TSFR  .1E-7
ZMAX   500. TLPV     .5 VDVM   200. VDVN    40. TUDC   .001 TADC    .01
PGER    30. TPST     2. VFLD    70. ZMIN   .001 HIST    470 LFIT     10
ACIT     90 LFCV      1 DCIT     10 VSIT     10 LPIT     50 LFLP     10
PDIT     10 LCRT     24 LPRT     60 CSTP   500.
ICIT     30 DMAX      5 FDIV     2. ICMN    .05 VART     5. TSTP     32
ICMV     .5 APAS    90. CPAR    70. VAVT     2. VAVF     5. VMVF    15.
VPVT     2. VPVF     5. VPMF    10. VSVF    20. VINF     1. VSUP     1.
99999
DBAR
(Num)OETGb(   nome   )Gl( V)( A)( Pg)( Qg)( Qn)( Qm)(Bc  )( Pl)( Ql)( Sh)Are(Vf)
 800   2 AGBMUNHOZ-3GR A1010  0.918.4-49.2-800. 800.                       11000
 808   1 ASCAXIAS--4GR A1020 11.1000.40.92-600. 600.                       21000
 810   1 ASSEGREDO-4GR A10104.921000.-235.-400. 532.                       21000
 814     EBATEIAS--230 A1000-21.                           680. 130.       11000
 824     BGBMUNHOZ-500 B1045-5.7                                           11000
 839     ECASCAVEL-230 A10042.84                                           21000
 840     FCASCAVEL-138 A 952-.19                           150.  32.       21000
 848     FFCHOPIM--138 A 9704.43                            90.  17.       21000
 856     BSEGREDO--500 B1040-.82                                           21000
 895     BBATEIAS--500 B1022-19.                                           11000
 896     BCASCAVELO500 B10364.37                                           21000
 897     BSCAXIAS--500 B10455.41                                           21000
 898     EFCHOPIM--230 A10257.88                                           21000
 904   1 AITA------3GR A1010-7.2 400.-390.-475. 475.                       11000
 915   1 AMACHADIN-1GR A1020-2.6 400.-108.-516. 465.                       11000
 919   1 ASOSOR1A4-4GR A102015.6 700.114.3-148. 220.                       21000
 925   1 ASSANTIAG-3GR A10207.62 800.2.146-440. 420.                       21000
 933     BAREIA----500 B1045 -6.                                           11000
 934     EAREIA----230 A1000-5.5                           235.  57.       21000
 938     BBLUMENAU-500 B1053-22.                                           11000
 939     EBLUMENAU-230 A1000-24.                           940.  50.       11000
 955     BCNOVOS---500 B1082-13.                                           11000
 959     BCURITIBA-500 B1023-19.                                           11000
 960     ECURITIBA-230 A1000-22.                           790. 330.       11000
 964     BCAXIAS---500 B1076-20.                                           11000
 965     ECAXIAS---230 A1000-22.                           700.  49.       11000
 976     BGRAVATAI-500 B1056-22.                                           11000
 995     BITA------500 B1071-10.                                           11000
1030     BMACHADIN-500 B1076-11.                                           11000
1047     ESOSORIO--230 A10318.92                                           21000
1060     BSSANTIAG-500 B1050.966                                           21000
1210     EGRAVATAI-230 A1000-24.                          1100. 400.       21000
2458     ECASCAVEL-230 A10002.46                           400. 125.       21000
99999
DLIN
(De )d O d(Pa )NcEP ( R% )( X% )(Mvar)(Tap)(Tmn)(Tmx)(Phs)(Bc  )(Cn)(Ce)Ns(Cq)
  814       895 1     .032 1.146      .9884   .9  1.1        814 600 60019
  814       895 2      .031.1651      .9884   .9  1.1        814 600 60019
  824       800 1           1.12      1.024                     16761676
  824       933 1      .01  .12415.204                          21822182
  824       933 2      .01  .12615.428                          21822182
  839       840 1           6.64      1.043 .8811.136       -840 150 15016
  839       840 2           6.29      1.043 .8811.136       -840 150 15016
  839       898 1     1.13  6.9912.617                           189 318
  839      1047 1     1.22  7.69 13.81                           189 323
  839      2458 1      .22  1.091.8601                           319 413
  839      2458 2      .17  1.032.0537                           356 356
  856       810 1           1.05         1.                     12601260
  856       933 1     .052  .65480.493                          22732273
  856      1060 1     .056  .69785.746                          21822182
  896       897 1      .05   .73 78.06                          16371637
  897       808 1           1.02      1.024                     13441478
  898       848 1           6.36      1.043 .8811.136       -848 150 15016
  898      1047 1      .15   .891.6317                           324 324
  933       895 1       .2  2.55312.72                          21102110
  933       955 1     .162 2.048250.17                          21102110
  933       959 1       .2  2.69 336.4                          21822182
  934       933 1 T   .031 1.207      .9701   .9  1.1        934 672 80619
  934      1047 1    3.04515.73827.123                           319 319
  934      1047 2    3.04115.71827.089                           319 319
  938       955 1    .25562.9224 360.4                          20372037
  938       959 1     .127 1.603195.89                          12661266
  939       938 1 T   .031  1.15      .9548   .9  1.1        939 672 80619
  939       938 2 T   .032 1.163      .9548   .9  1.1        939 672 80619
  939       938 3          1.277      .9548   .9  1.1        939 672 67219
  955       964 1    .18772.3467287.24                          16881688
  959       895 1      .05   .44 47.58                          21102110
  960       959 1 T   .032 1.163      .9995   .9  1.1        960 672 80619
  960       959 2 T   .031 1.166      .9995   .9  1.1        960 672 80619
  964       976 1    .0733 .9164112.17                          16881688
  965       964 1 T    .02 1.211      .9368   .9  1.1        965 672 80619
  965       964 2 T    .02 1.233      .9368   .9  1.1        965 672 80619
  976       995 1     .282 3.852 493.7                          16881688
  995       904 1 T .012331.5383         1.                     16251625
  995       964 1    .16433.0339354.88                          21822182
  995      1030 1     .073   .92112.26                          21822182
  995      1060 1     .172  2.17265.16                          21102110
 1030       915 1 T        4.131         1.                     12541254
 1030       955 1     .047   .5971.818                          21822182
 1047       919 1 T .024251.7022      1.025                      788 788
 1060       897 1     .076 1.171124.58                          23702681
 1060       925 1 T .01133 1.515      1.024                     14021402
 1210       976 1 T    .03 1.219       .967   .9  1.1       1210 672 80619
 1210       976 2 T   .039 1.138       .967   .9  1.1       1210 672 80619
 1210       976 3 T   .036 1.217       .967   .9  1.1       1210 672 80619
 2458       896 1           1.27      .9863   .9  1.1       2458 600 60019
99999
DCER
(No ) O Gr Un (Kb ) (Incl) ( Qg)( Qn)( Qm) C E L
  800   20  1   800    1.2   2.5-180. 220.   L
  810   20  1   810    1.2   2.5-180. 220.   L
  824   20  1   824    1.2   2.5-180. 220.   L
  839   15  1   839    0.9   8.3-200. 280. P L
  933   15  1   933    1.2   1.3-200. 280. P L
  848   20  1   848    1.2   2.5-180. 220.   L
 1210   20  1  1210    1.2   2.5-180. 220.   L
 2458   20  1  2458    1.2   2.5-180. 220.   L
99999
DCSC
(De ) O  (Pa )NcEPB      (Xmin)(Xmax)( Xv )C ( Vsp) (Ext)Nst(Cn)(Ce)(Cq)(1)(2)(3)(4)(5)(6)(7)(8)(9)(10
  814      848 1 T        -.876 -.876 -.876X  -.876   814   19922685100.
99999
DGLT
(G (Vmn) (Vmx) (Vmne (Vmxe
 A   .95  1.05   .95  1.05
 B   .95  1.09   .95  1.05
99999
DARE
(Ar    (Xchg)     (      Identificacao da area       ) (Xmin) (Xmax)
  1        0.     AREA UM
  2        0.     AREA DOIS
99999
DGBT
(G ( kV)
 A  13.8
 E  230.
 B  500.
 F  138.
99999
DGGB
(G Co Es
 A  0  1
 E  0  1
 B  0  1
 F  0  1
99999
FIM
